


 36 39  0  0000  0  0  0  0  0999 V2000
   15.6594    1.2475    0.0000 S   0  0  0  0  0  0  0  0  0  0  0
    3.4030    1.2003    0.0000 S   0  0  0  0  0  0  0  0  0  0  0
   13.9505   -1.7657    0.0000 O   0  0  0  0  0  0  0  0  0  0  0
    5.1350   -1.7997    0.0000 O   0  0  0  0  0  0  0  0  0  0  0
   16.5215    1.7542    0.0000 O   0  0  0  0  0  0  0  0  0  0  0
    2.5369    1.7003    0.0000 O   0  0  0  0  0  0  0  0  0  0  0
   15.1527    2.1097    0.0000 O   0  0  0  0  0  0  0  0  0  0  0
   16.1660    0.3854    0.0000 O   0  0  0  0  0  0  0  0  0  0  0
    3.9030    2.0663    0.0000 O   0  0  0  0  0  0  0  0  0  0  0
    2.9030    0.3343    0.0000 O   0  0  0  0  0  0  0  0  0  0  0
    9.5369   -0.2722    0.0000 O   0  0  0  0  0  0  0  0  0  0  0
   10.3972    1.2311    0.0000 N   0  0  0  0  0  0  0  0  0  0  0
    8.6651    1.2245    0.0000 N   0  0  0  0  0  0  0  0  0  0  0
   13.0652    0.7275    0.0000 C   0  0  0  0  0  0  0  0  0  0  0
    6.0010    0.7003    0.0000 C   0  0  0  0  0  0  0  0  0  0  0
   13.0729   -0.2724    0.0000 C   0  0  0  0  0  0  0  0  0  0  0
    6.0010   -0.2997    0.0000 C   0  0  0  0  0  0  0  0  0  0  0
   11.2651    0.7345    0.0000 C   0  0  0  0  0  0  0  0  0  0  0
    7.8010    0.7211    0.0000 C   0  0  0  0  0  0  0  0  0  0  0
   12.1672    1.2553    0.0000 C   0  0  0  0  0  0  0  0  0  0  0
    6.8950    1.2350    0.0000 C   0  0  0  0  0  0  0  0  0  0  0
   13.9274    1.2342    0.0000 C   0  0  0  0  0  0  0  0  0  0  0
    5.1350    1.2003    0.0000 C   0  0  0  0  0  0  0  0  0  0  0
   14.7972    0.7409    0.0000 C   0  0  0  0  0  0  0  0  0  0  0
    4.2690    0.7003    0.0000 C   0  0  0  0  0  0  0  0  0  0  0
   13.9428   -0.7657    0.0000 C   0  0  0  0  0  0  0  0  0  0  0
    5.1350   -0.7997    0.0000 C   0  0  0  0  0  0  0  0  0  0  0
   12.1832   -0.8140    0.0000 C   0  0  0  0  0  0  0  0  0  0  0
    6.8950   -0.8344    0.0000 C   0  0  0  0  0  0  0  0  0  0  0
   14.8049   -0.2591    0.0000 C   0  0  0  0  0  0  0  0  0  0  0
    4.2690   -0.2997    0.0000 C   0  0  0  0  0  0  0  0  0  0  0
   11.2732   -0.3071    0.0000 C   0  0  0  0  0  0  0  0  0  0  0
    7.8010   -0.3205    0.0000 C   0  0  0  0  0  0  0  0  0  0  0
    9.5331    0.7278    0.0000 C   0  0  0  0  0  0  0  0  0  0  0
   10.3948    1.8511    0.0000 H   0  0  0  0  0  0  0  0  0  0  0
    8.6627    1.8445    0.0000 H   0  0  0  0  0  0  0  0  0  0  0
  1  5  1  0
  1  7  2  0
  1  8  2  0
  1 24  1  0
  2  6  1  0
  2  9  2  0
  2 10  2  0
  2 25  1  0
  3 26  1  0
  4 27  1  0
 11 34  2  0
 12 18  1  0
 12 34  1  0
 12 35  1  0
 13 19  1  0
 13 34  1  0
 13 36  1  0
 14 16  1  0
 14 20  1  0
 14 22  2  0
 15 17  1  0
 15 21  1  0
 15 23  2  0
 16 26  2  0
 16 28  1  0
 17 27  2  0
 17 29  1  0
 18 20  2  0
 18 32  1  0
 19 21  2  0
 19 33  1  0
 22 24  1  0
 23 25  1  0
 24 30  2  0
 25 31  2  0
 26 30  1  0
 27 31  1  0
 28 32  2  0
 29 33  2  0
M  END

> <PUBCHEM_BONDANNOTATIONS>
14  16  8
14  20  8
14  22  8
15  17  8
15  21  8
15  23  8
16  26  8
16  28  8
17  27  8
17  29  8
18  20  8
18  32  8
19  21  8
19  33  8
22  24  8
23  25  8
24  30  8
25  31  8
26  30  8
27  31  8
28  32  8
29  33  8

> <StdInChI>
InChI=1S/C21H16N2O9S2/c24-19-9-15(33(27,28)29)7-11-5-13(1-3-17(11)19)22-21(26)23-14-2-4-18-12(6-14)8-16(10-20(18)25)34(30,31)32/h1-10,24-25H,(H2,22,23,26)(H,27,28,29)(H,30,31,32)

> <StdInChIKey>
PCGISRHGYLRXSR-UHFFFAOYSA-N

> <AuxInfo>
1/1/N:32,33,28,29,20,21,22,23,30,31,14,15,18,19,24,25,16,17,26,27,34,12,13,3,4,11,5,7,8,6,9,10,1,2/E:(1,2)(3,4)(5,6)(7,8)(9,10)(11,12)(13,14)(15,16)(17,18)(19,20)(22,23)(24,25)(27,28,29,30,31,32)(33,34)/gE:(2,3)/CRV:33.6,34.6/rA:50nSSOOOOOOOOONNCCCCCCCCCCCCCCCCCCCCCHHHHHHHHHHHHHHHH/rB:;;;s1;s2;d1;d1;d2;d2;;;;;;s14;s15;s12;s13;s14d18;s15d19;d14;d15;s1s22;s2s23;s3d16;s4d17;s16;s17;d24s26;d25s27;s18d28;s19d29;d11s12s13;s20;s21;s22;s23;s28;s29;s30;s31;s32;s33;s12;s13;s3;s4;s5;s6;/rC:15.6594,1.2475,0;3.403,1.2003,0;13.9505,-1.7657,0;5.135,-1.7997,0;16.5215,1.7542,0;2.5369,1.7003,0;15.1527,2.1097,0;16.166,.3854,0;3.903,2.0663,0;2.903,.3343,0;9.5369,-.2722,0;10.3972,1.2311,0;8.6651,1.2245,0;13.0652,.7275,0;6.001,.7003,0;13.0729,-.2724,0;6.001,-.2997,0;11.2651,.7345,0;7.801,.7211,0;12.1672,1.2553,0;6.895,1.235,0;13.9274,1.2342,0;5.135,1.2003,0;14.7972,.7409,0;4.269,.7003,0;13.9428,-.7657,0;5.135,-.7997,0;12.1832,-.814,0;6.895,-.8344,0;14.8049,-.2591,0;4.269,-.2997,0;11.2732,-.3071,0;7.801,-.3205,0;9.5331,.7278,0;12.1696,1.8753,0;6.8878,1.8549,0;13.9226,1.8542,0;5.135,1.8203,0;12.1951,-1.4339,0;6.8878,-1.4543,0;15.3443,-.5649,0;3.7321,-.6097,0;10.7398,-.6233,0;8.3368,-.6326,0;10.3948,1.8511,0;8.6627,1.8445,0;14.4898,-2.0716,0;4.5981,-2.1097,0;17.0608,1.4484,0;2,1.3903,0;

> <Formula>
C21 H16 N2 O9 S2

> <Mw>
504.4897

> <SMILES>
S(C1=C([H])C(=C2C([H])=C([H])C(=C([H])C2=C1[H])N([H])C(N([H])C1C([H])=C([H])C2=C(C([H])=C(C([H])=C2C=1[H])S(=O)(=O)O[H])O[H])=O)O[H])(=O)(=O)O[H]

> <CSID>
60588

$$$$
